WIDTH=16;
DEPTH=512;

ADDRESS_RADIX=HEX;
DATA_RADIX=HEX;

CONTENT BEGIN
    0 : 4010;
    1 : 000A;
    2 : 4020;
    3 : 0014;
    4 : 7831;
    5 : 0014;
    6 : 4842;
    7 : 0007;
    8 : 4C54;
    9 : 0008;
    A : 1000;
    B : 3400;
    C : 5800;
    D : 000E;
    E : 3400;
    F : 5800;
    10 : 000E;
    11 : 0000;
    12 : 0000;
    13 : 0000;
    14 : 0000;
    15 : 0000;
    16 : 0000;
    17 : 0000;
    18 : 0000;
    19 : 0000;
    1A : 0000;
    1B : 0000;
    1C : 0000;
    1D : 0000;
    1E : 0000;
    1F : 0000;
    20 : 0000;
    21 : 0000;
    22 : 0000;
    23 : 0000;
    24 : 0000;
    25 : 0000;
    26 : 0000;
    27 : 0000;
    28 : 0000;
    29 : 0000;
    2A : 0000;
    2B : 0000;
    2C : 0000;
    2D : 0000;
    2E : 0000;
    2F : 0000;
    30 : 0000;
    31 : 0000;
    32 : 0000;
    33 : 0000;
    34 : 0000;
    35 : 0000;
    36 : 0000;
    37 : 0000;
    38 : 0000;
    39 : 0000;
    3A : 0000;
    3B : 0000;
    3C : 0000;
    3D : 0000;
    3E : 0000;
    3F : 0000;
    40 : 0000;
    41 : 0000;
    42 : 0000;
    43 : 0000;
    44 : 0000;
    45 : 0000;
    46 : 0000;
    47 : 0000;
    48 : 0000;
    49 : 0000;
    4A : 0000;
    4B : 0000;
    4C : 0000;
    4D : 0000;
    4E : 0000;
    4F : 0000;
    50 : 0000;
    51 : 0000;
    52 : 0000;
    53 : 0000;
    54 : 0000;
    55 : 0000;
    56 : 0000;
    57 : 0000;
    58 : 0000;
    59 : 0000;
    5A : 0000;
    5B : 0000;
    5C : 0000;
    5D : 0000;
    5E : 0000;
    5F : 0000;
    60 : 0000;
    61 : 0000;
    62 : 0000;
    63 : 0000;
    64 : 0000;
    65 : 0000;
    66 : 0000;
    67 : 0000;
    68 : 0000;
    69 : 0000;
    6A : 0000;
    6B : 0000;
    6C : 0000;
    6D : 0000;
    6E : 0000;
    6F : 0000;
    70 : 0000;
    71 : 0000;
    72 : 0000;
    73 : 0000;
    74 : 0000;
    75 : 0000;
    76 : 0000;
    77 : 0000;
    78 : 0000;
    79 : 0000;
    7A : 0000;
    7B : 0000;
    7C : 0000;
    7D : 0000;
    7E : 0000;
    7F : 0000;
    80 : 0000;
    81 : 0000;
    82 : 0000;
    83 : 0000;
    84 : 0000;
    85 : 0000;
    86 : 0000;
    87 : 0000;
    88 : 0000;
    89 : 0000;
    8A : 0000;
    8B : 0000;
    8C : 0000;
    8D : 0000;
    8E : 0000;
    8F : 0000;
    90 : 0000;
    91 : 0000;
    92 : 0000;
    93 : 0000;
    94 : 0000;
    95 : 0000;
    96 : 0000;
    97 : 0000;
    98 : 0000;
    99 : 0000;
    9A : 0000;
    9B : 0000;
    9C : 0000;
    9D : 0000;
    9E : 0000;
    9F : 0000;
    A0 : 0000;
    A1 : 0000;
    A2 : 0000;
    A3 : 0000;
    A4 : 0000;
    A5 : 0000;
    A6 : 0000;
    A7 : 0000;
    A8 : 0000;
    A9 : 0000;
    AA : 0000;
    AB : 0000;
    AC : 0000;
    AD : 0000;
    AE : 0000;
    AF : 0000;
    B0 : 0000;
    B1 : 0000;
    B2 : 0000;
    B3 : 0000;
    B4 : 0000;
    B5 : 0000;
    B6 : 0000;
    B7 : 0000;
    B8 : 0000;
    B9 : 0000;
    BA : 0000;
    BB : 0000;
    BC : 0000;
    BD : 0000;
    BE : 0000;
    BF : 0000;
    C0 : 0000;
    C1 : 0000;
    C2 : 0000;
    C3 : 0000;
    C4 : 0000;
    C5 : 0000;
    C6 : 0000;
    C7 : 0000;
    C8 : 0000;
    C9 : 0000;
    CA : 0000;
    CB : 0000;
    CC : 0000;
    CD : 0000;
    CE : 0000;
    CF : 0000;
    D0 : 0000;
    D1 : 0000;
    D2 : 0000;
    D3 : 0000;
    D4 : 0000;
    D5 : 0000;
    D6 : 0000;
    D7 : 0000;
    D8 : 0000;
    D9 : 0000;
    DA : 0000;
    DB : 0000;
    DC : 0000;
    DD : 0000;
    DE : 0000;
    DF : 0000;
    E0 : 0000;
    E1 : 0000;
    E2 : 0000;
    E3 : 0000;
    E4 : 0000;
    E5 : 0000;
    E6 : 0000;
    E7 : 0000;
    E8 : 0000;
    E9 : 0000;
    EA : 0000;
    EB : 0000;
    EC : 0000;
    ED : 0000;
    EE : 0000;
    EF : 0000;
    F0 : 0000;
    F1 : 0000;
    F2 : 0000;
    F3 : 0000;
    F4 : 0000;
    F5 : 0000;
    F6 : 0000;
    F7 : 0000;
    F8 : 0000;
    F9 : 0000;
    FA : 0000;
    FB : 0000;
    FC : 0000;
    FD : 0000;
    FE : 0000;
    FF : 0000;
    100 : 0000;
    101 : 0000;
    102 : 0000;
    103 : 0000;
    104 : 0000;
    105 : 0000;
    106 : 0000;
    107 : 0000;
    108 : 0000;
    109 : 0000;
    10A : 0000;
    10B : 0000;
    10C : 0000;
    10D : 0000;
    10E : 0000;
    10F : 0000;
    110 : 0000;
    111 : 0000;
    112 : 0000;
    113 : 0000;
    114 : 0000;
    115 : 0000;
    116 : 0000;
    117 : 0000;
    118 : 0000;
    119 : 0000;
    11A : 0000;
    11B : 0000;
    11C : 0000;
    11D : 0000;
    11E : 0000;
    11F : 0000;
    120 : 0000;
    121 : 0000;
    122 : 0000;
    123 : 0000;
    124 : 0000;
    125 : 0000;
    126 : 0000;
    127 : 0000;
    128 : 0000;
    129 : 0000;
    12A : 0000;
    12B : 0000;
    12C : 0000;
    12D : 0000;
    12E : 0000;
    12F : 0000;
    130 : 0000;
    131 : 0000;
    132 : 0000;
    133 : 0000;
    134 : 0000;
    135 : 0000;
    136 : 0000;
    137 : 0000;
    138 : 0000;
    139 : 0000;
    13A : 0000;
    13B : 0000;
    13C : 0000;
    13D : 0000;
    13E : 0000;
    13F : 0000;
    140 : 0000;
    141 : 0000;
    142 : 0000;
    143 : 0000;
    144 : 0000;
    145 : 0000;
    146 : 0000;
    147 : 0000;
    148 : 0000;
    149 : 0000;
    14A : 0000;
    14B : 0000;
    14C : 0000;
    14D : 0000;
    14E : 0000;
    14F : 0000;
    150 : 0000;
    151 : 0000;
    152 : 0000;
    153 : 0000;
    154 : 0000;
    155 : 0000;
    156 : 0000;
    157 : 0000;
    158 : 0000;
    159 : 0000;
    15A : 0000;
    15B : 0000;
    15C : 0000;
    15D : 0000;
    15E : 0000;
    15F : 0000;
    160 : 0000;
    161 : 0000;
    162 : 0000;
    163 : 0000;
    164 : 0000;
    165 : 0000;
    166 : 0000;
    167 : 0000;
    168 : 0000;
    169 : 0000;
    16A : 0000;
    16B : 0000;
    16C : 0000;
    16D : 0000;
    16E : 0000;
    16F : 0000;
    170 : 0000;
    171 : 0000;
    172 : 0000;
    173 : 0000;
    174 : 0000;
    175 : 0000;
    176 : 0000;
    177 : 0000;
    178 : 0000;
    179 : 0000;
    17A : 0000;
    17B : 0000;
    17C : 0000;
    17D : 0000;
    17E : 0000;
    17F : 0000;
    180 : 0000;
    181 : 0000;
    182 : 0000;
    183 : 0000;
    184 : 0000;
    185 : 0000;
    186 : 0000;
    187 : 0000;
    188 : 0000;
    189 : 0000;
    18A : 0000;
    18B : 0000;
    18C : 0000;
    18D : 0000;
    18E : 0000;
    18F : 0000;
    190 : 0000;
    191 : 0000;
    192 : 0000;
    193 : 0000;
    194 : 0000;
    195 : 0000;
    196 : 0000;
    197 : 0000;
    198 : 0000;
    199 : 0000;
    19A : 0000;
    19B : 0000;
    19C : 0000;
    19D : 0000;
    19E : 0000;
    19F : 0000;
    1A0 : 0000;
    1A1 : 0000;
    1A2 : 0000;
    1A3 : 0000;
    1A4 : 0000;
    1A5 : 0000;
    1A6 : 0000;
    1A7 : 0000;
    1A8 : 0000;
    1A9 : 0000;
    1AA : 0000;
    1AB : 0000;
    1AC : 0000;
    1AD : 0000;
    1AE : 0000;
    1AF : 0000;
    1B0 : 0000;
    1B1 : 0000;
    1B2 : 0000;
    1B3 : 0000;
    1B4 : 0000;
    1B5 : 0000;
    1B6 : 0000;
    1B7 : 0000;
    1B8 : 0000;
    1B9 : 0000;
    1BA : 0000;
    1BB : 0000;
    1BC : 0000;
    1BD : 0000;
    1BE : 0000;
    1BF : 0000;
    1C0 : 0000;
    1C1 : 0000;
    1C2 : 0000;
    1C3 : 0000;
    1C4 : 0000;
    1C5 : 0000;
    1C6 : 0000;
    1C7 : 0000;
    1C8 : 0000;
    1C9 : 0000;
    1CA : 0000;
    1CB : 0000;
    1CC : 0000;
    1CD : 0000;
    1CE : 0000;
    1CF : 0000;
    1D0 : 0000;
    1D1 : 0000;
    1D2 : 0000;
    1D3 : 0000;
    1D4 : 0000;
    1D5 : 0000;
    1D6 : 0000;
    1D7 : 0000;
    1D8 : 0000;
    1D9 : 0000;
    1DA : 0000;
    1DB : 0000;
    1DC : 0000;
    1DD : 0000;
    1DE : 0000;
    1DF : 0000;
    1E0 : 0000;
    1E1 : 0000;
    1E2 : 0000;
    1E3 : 0000;
    1E4 : 0000;
    1E5 : 0000;
    1E6 : 0000;
    1E7 : 0000;
    1E8 : 0000;
    1E9 : 0000;
    1EA : 0000;
    1EB : 0000;
    1EC : 0000;
    1ED : 0000;
    1EE : 0000;
    1EF : 0000;
    1F0 : 0000;
    1F1 : 0000;
    1F2 : 0000;
    1F3 : 0000;
    1F4 : 0000;
    1F5 : 0000;
    1F6 : 0000;
    1F7 : 0000;
    1F8 : 0000;
    1F9 : 0000;
    1FA : 0000;
    1FB : 0000;
    1FC : 0000;
    1FD : 0000;
    1FE : 0000;
    1FF : 0000;
END;
